# SADDLE/HF/6-31G

-1 1
C       -0.034788542     -0.000000250     -3.121980023
H       -1.112647436     -0.070252850     -2.936525905
H        0.552762831     -0.924424749     -3.085507121
H        0.459781814      0.969170571     -2.990767395
O       -0.131956068      0.263827629     -4.534266581
H       -0.128953015      1.219402973     -4.676654681
F       -0.097823536      0.005175812     -1.770304776
Options
GauMem=1000
GauProc=4
SADDLE+IRC

