%chk=sn2_MO.chk
%nproc=4
%mem=1000MW
#p HF/6-31G guess=read scf=(xqc,maxcon=128,maxcyc=512,conver=8) force IOp(1/10=10) IOp(1/18=10) IOp(2/15=3) IOp(2/12=1)

force calculation: 1 0 0 0 0

-1 1
C 	 0	   0.061028575864	   0.000339624799	  -3.461200258849
H 	 0	  -0.915185943253	  -0.119366511818	  -3.027962869008
H 	 0	   0.571892560326	  -0.945709537963	  -3.437211002804
H 	 0	   0.595149524796	   0.700796888079	  -2.845502979050
O 	 0	   0.011191691749	   0.405264415709	  -4.869752348719
H 	 0	  -0.430163694662	   1.241204311120	  -4.970510793490
F 	 0	  -0.111051165440	  -0.258171874793	  -0.864231846928


