3
Str. 0/ -75.985359169239/   0.000000000000
O	  -1.039820327489	  -0.003411755953	  -0.397360325106
H	  -1.537154230476	   0.653503353693	   0.074778646020
H	  -1.609032649422	  -0.599134871264	  -0.869504313155
3
Str. 1/ -75.985359095741/   0.000000000000
O	  -1.039599690370	  -0.003426646721	  -0.397362001061
H	  -1.537266924737	   0.653484369304	   0.074759523261
H	  -1.609140592281	  -0.599100996107	  -0.869483514442
3
Str. 2/ -75.985340684339/   0.000000000000
O	  -1.038970766847	  -0.003462734508	  -0.397362001067
H	  -1.542421482737	   0.650915721172	   0.072607310161
H	  -1.613967506983	  -0.595959608607	  -0.867331301242
3
Str. 3/ -75.984460163788/   0.000000000000
O	  -1.034896780951	  -0.003696500826	  -0.397362001109
H	  -1.575240970549	   0.644214984772	   0.066157679069
H	  -1.645805131766	  -0.585548831105	  -0.860881669487
3
Str. 4/ -75.984863990200/   0.000000000000
O	  -1.042978340801	  -0.003232778925	  -0.397362001027
H	  -1.510191117684	   0.656564096625	   0.078240838808
H	  -1.582594765160	  -0.605257546039	  -0.872964830530
3
Str. 5/ -75.984822378924/   0.000000000000
O	  -1.038052932026	  -0.003515400096	  -0.397362001076
H	  -1.549063552051	   0.662509664125	   0.081032190191
H	  -1.621892142332	  -0.606717710455	  -0.875756181129
3
Str. 6/ -75.984146059761/   0.000000000000
O	  -1.043658372023	  -0.003193758563	  -0.397362001018
H	  -1.503474316074	   0.679267722522	   0.095589050995
H	  -1.578518977793	  -0.628580453396	  -0.890313042856
3
Str. 7/ -75.981444179234/   0.000000000000
O	  -1.048668771462	  -0.002906260604	  -0.397362000966
H	  -1.462576503522	   0.696827206556	   0.110545809391
H	  -1.539898115296	  -0.650702738678	  -0.905269802082
3
Str. 8/ -75.975606131096/   0.000000000000
O	  -1.056468000619	  -0.002458738910	  -0.397362000888
H	  -1.399498938488	   0.713977362995	   0.126151257014
H	  -1.479196253850	  -0.674955389155	  -0.920875250938
3
Str. 9/ -75.967750869703/   0.000000000000
O	  -1.064644537575	  -0.001989567198	  -0.397362000804
H	  -1.333621906938	   0.727564172465	   0.139200037398
H	  -1.415305710345	  -0.695988294162	  -0.933924032656
3
Str. 10/ -75.959282136994/   0.000000000000
O	  -1.073074474816	  -0.001505855316	  -0.397362000718
H	  -1.265963100144	   0.737043844716	   0.149239691502
H	  -1.349175295672	  -0.713144825004	  -0.943963688128
3
Str. 11/ -75.951736332394/   0.000000000000
O	  -1.081685763063	  -0.001011737468	  -0.397362000630
H	  -1.197110739762	   0.742161901052	   0.156053653676
H	  -1.281360262509	  -0.726104890160	  -0.950777651702
3
Str. 12/ -75.946528814769/   0.000000000000
O	  -1.090456833870	  -0.000508451257	  -0.397362000540
H	  -1.127301928967	   0.741778817025	   0.158775506907
H	  -1.211965814581	  -0.733709323531	  -0.953499506365
3
Str. 13/ -75.944641037052/   0.000000000000
O	  -1.099317921435	   0.000000000206	  -0.397362000540
H	  -1.056985983956	   0.737744070523	   0.158775507168
H	  -1.141649869610	  -0.737744070729	  -0.953499506629
3
Str. 14/ -75.944641037052/   0.000000000000
O	  -1.099317921435	   0.000000000206	  -0.397362000540
H	  -1.056985983956	   0.737744070523	   0.158775507168
H	  -1.141649869610	  -0.737744070729	  -0.953499506629
3
Str. 15/ -75.946528814263/   0.000000000000
O	  -1.108179009000	   0.000508451669	  -0.397362000540
H	  -0.986670038945	   0.733709324021	   0.158775507429
H	  -1.071333924639	  -0.741778817927	  -0.953499506893
3
Str. 16/ -75.951736331673/   0.000000000000
O	  -1.116950080079	   0.001011738031	  -0.397362000630
H	  -0.917275588824	   0.726104890042	   0.156053654641
H	  -1.001525111722	  -0.742161903732	  -0.950777652670
3
Str. 17/ -75.959282136045/   0.000000000000
O	  -1.125561368276	   0.001505856010	  -0.397362000718
H	  -0.849460556042	   0.713144824165	   0.149239692704
H	  -0.932672751754	  -0.737043848759	  -0.943963689342
3
Str. 18/ -75.967750868731/   0.000000000000
O	  -1.133991305536	   0.001989568023	  -0.397362000805
H	  -0.783330141184	   0.695988292755	   0.139200038964
H	  -0.865013944833	  -0.727564178022	  -0.933924034220
3
Str. 19/ -75.975606130288/   0.000000000000
O	  -1.142167842549	   0.002458739863	  -0.397362000890
H	  -0.719439597190	   0.674955387163	   0.126151258912
H	  -0.799136912858	  -0.713977369996	  -0.920875252818
3
Str. 20/ -75.981444178744/   0.000000000000
O	  -1.149967071834	   0.002906261688	  -0.397362000970
H	  -0.658737734735	   0.650702735817	   0.110545811435
H	  -0.736059346800	  -0.696827214777	  -0.905269804079
3
Str. 21/ -75.984146059531/   0.000000000000
O	  -1.154977471404	   0.003193759731	  -0.397362001022
H	  -0.620116871199	   0.628580449709	   0.095589052911
H	  -0.695161533209	  -0.679267731242	  -0.890313044736
3
Str. 22/ -75.984822378784/   0.000000000000
O	  -1.160582912146	   0.003515401393	  -0.397362001079
H	  -0.576743700812	   0.606717704579	   0.081032191221
H	  -0.649572291259	  -0.662509672699	  -0.875756182135
3
Str. 23/ -75.984863990335/   0.000000000000
O	  -1.155657503707	   0.003232780163	  -0.397362001028
H	  -0.616041075442	   0.605257538328	   0.078240838097
H	  -0.688444722838	  -0.656564102440	  -0.872964829815
3
Str. 24/ -75.984460164067/   0.000000000000
O	  -1.163739062270	   0.003696502117	  -0.397362001110
H	  -0.552830718818	   0.585548827339	   0.066157681648
H	  -0.623394880422	  -0.644214995382	  -0.860881672069
3
Str. 25/ -75.985340684351/   0.000000000000
O	  -1.159665076945	   0.003462735766	  -0.397362001070
H	  -0.584668339194	   0.595959602561	   0.072607310841
H	  -0.656214363577	  -0.650915728976	  -0.867331301890
3
Str. 26/ -75.985359095741/   0.000000000000
O	  -1.159036153623	   0.003426647983	  -0.397362001061
H	  -0.589495252369	   0.599100989194	   0.074759523296
H	  -0.661368919919	  -0.653484376311	  -0.869483514480
3
Str. 27/ -75.985359169239/   0.000000000000
O	  -1.158815261413	   0.003416203666	  -0.397360325119
H	  -0.589605035440	   0.599132739306	   0.074778645992
H	  -0.661480029059	  -0.653505682108	  -0.869504313118
