3
# NODE 0/  -0.086107767265/   0.000000000000
O 	   0.215688960000	   0.000000000000	  -1.343610340000
H 	   0.215688960000	   0.759337000000	  -0.747567340000
H 	   0.215688960000	  -0.759337000000	  -0.747567340000
3
# NODE 1/  -0.082885447172/   0.000000000000
O 	   0.215688960000	  -0.013667451120	  -1.304420288617
H 	   0.215688960000	   0.791126406428	  -0.763670682573
H 	   0.215688960000	  -0.853672850355	  -0.710829809191
3
# NODE 2/  -0.073627216437/   0.000000000000
O 	   0.215688960000	  -0.022426423642	  -1.281418884280
H 	   0.215688960000	   0.808710041646	  -0.775429789124
H 	   0.215688960000	  -0.938711408099	  -0.662247867357
3
# NODE 3/  -0.052721779552/   0.000000000000
O 	   0.215688960000	  -0.000000001440	  -1.343610336256
H 	   0.215688960000	   0.759337002978	  -0.747567341784
H 	   0.215688960000	  -0.987978686682	  -0.568094623103
3
# NODE 4/  -0.031284915142/   0.000000000000
O 	   0.215688960000	   0.000000000151	  -1.343610340390
H 	   0.215688960000	   0.759336999698	  -0.747567339802
H 	   0.215688960000	  -1.064192580040	  -0.508270381332
3
# NODE 5/  -0.007411288050/   0.000000000000
O 	   0.215688960000	  -0.000000000518	  -1.343610338752
H 	   0.215688960000	   0.759337000980	  -0.747567340660
H 	   0.215688960000	  -1.140406475700	  -0.448446142493
3
# NODE 6/   0.017437706196/   0.000000000000
O 	   0.215688960000	  -0.000000000124	  -1.343610339787
H 	   0.215688960000	   0.759337000206	  -0.747567340109
H 	   0.215688960000	  -1.216620370368	  -0.388621902390
3
# NODE 7/   0.042101868469/   0.000000000000
O 	   0.215688960000	   0.000000000677	  -1.343610341574
H 	   0.215688960000	   0.759336998796	  -0.747567339098
H 	   0.215688960000	  -1.292834264806	  -0.328797661995
3
# NODE 8/   0.065746421344/   0.000000000000
O 	   0.215688960000	  -0.000000000406	  -1.343610338924
H 	   0.215688960000	   0.759337000738	  -0.747567340653
H 	   0.215688960000	  -1.369048160713	  -0.268973423471
3
# NODE 9/   0.087836695052/   0.000000000000
O 	   0.215688960000	  -0.000000001809	  -1.343610336217
H 	   0.215688960000	   0.759337002990	  -0.747567342279
H 	   0.215688960000	  -1.445262056609	  -0.209149184932
3
# NODE 10/   0.108085442659/   0.000000000000
O 	   0.215688960000	  -0.000000002553	  -1.343610335372
H 	   0.215688960000	   0.759337003990	  -0.747567342797
H 	   0.215688960000	  -1.521475951913	  -0.149324945640
3
# NODE 11/   0.126390409185/   0.000000000000
O 	   0.215688960000	  -0.000000002358	  -1.343610335531
H 	   0.215688960000	   0.759337003669	  -0.747567342799
H 	   0.215688960000	  -1.597689846835	  -0.089500705861
3
# NODE 12/   0.142774820655/   0.000000000000
O 	   0.215688960000	   0.000000001146	  -1.343610342756
H 	   0.215688960000	   0.759336998127	  -0.747567338170
H 	   0.215688960000	  -1.673903739844	  -0.029676463645
3
# NODE 13/   0.157338343894/   0.000000000000
O 	   0.215688960000	   0.000000001213	  -1.343610342419
H 	   0.215688960000	   0.759336998143	  -0.747567338402
H 	   0.215688960000	  -1.750117634975	   0.030147775868
3
# NODE 14/   0.170221360162/   0.000000000000
O 	   0.215688960000	  -0.000000001403	  -1.343610337298
H 	   0.215688960000	   0.759337002102	  -0.747567341811
H 	   0.215688960000	  -1.826331531366	   0.089972013776
3
# NODE 15/   0.181581700465/   0.000000000000
O 	   0.215688960000	   0.000000002620	  -1.343610344733
H 	   0.215688960000	   0.759336996178	  -0.747567336799
H 	   0.215688960000	  -1.902545424512	   0.149796255817
3
# NODE 16/   0.191580912397/   0.000000000000
O 	   0.215688960000	  -0.000000003198	  -1.343610333983
H 	   0.215688960000	   0.759337004655	  -0.747567344162
H 	   0.215688960000	  -1.978759322219	   0.209620492049
3
# NODE 17/   0.200376649482/   0.000000000000
O 	   0.215688960000	   0.000000000078	  -1.343610340154
H 	   0.215688960000	   0.759336999886	  -0.747567339892
H 	   0.215688960000	  -2.054973215774	   0.269444733569
3
# NODE 18/   0.208118339364/   0.000000000000
O 	   0.215688960000	   0.000000002539	  -1.343610344528
H 	   0.215688960000	   0.759336996420	  -0.747567336798
H 	   0.215688960000	  -2.131187109817	   0.329268974468
3
# NODE 19/   0.214944485495/   0.000000000000
O 	   0.215688960000	   0.000000002816	  -1.343610344948
H 	   0.215688960000	   0.759336996079	  -0.747567336461
H 	   0.215688960000	  -2.207401004799	   0.389093214170
3
# NODE 20/   0.220980858520/   0.000000000000
O 	   0.215688960000	  -0.000000001934	  -1.343610336452
H 	   0.215688960000	   0.759337002692	  -0.747567342582
H 	   0.215688960000	  -2.283614901711	   0.448917451415
3
# NODE 21/   0.226339447886/   0.000000000000
O 	   0.215688960000	   0.000000000000	  -1.343610340000
H 	   0.215688960000	   0.759337000000	  -0.747567340000
H 	   0.215688960000	  -2.359828796000	   0.508741692000
