#p M062X/6-31G

chk calc

1 1
C          3.824482709313         -1.142195440277          1.172253689546
H          4.799113079067         -1.629614229640          1.173808706614
H          3.053614027472         -1.916312598135          1.160804943909
H         -2.540416453313         -2.844981591585         -1.014302773483
H          3.759606419784         -0.532917939781          2.078246180269
H          3.765323683350         -0.521541459884          0.273951193802
C         -2.401542121648         -0.705499020888          0.492562548593
C         -1.333655940489          0.193207044343          1.141270536303
C          0.021967088723         -0.470337509634          0.950186539021
N         -1.303304813839          1.529148773311          0.515945207427
O          0.155929116969         -1.611462803379          0.516920189909
O          1.024922388177          0.353392553920          1.298655999808
C         -2.121889444563         -0.918337302275         -0.967112723362
H         -3.392299319508         -0.247402335173          0.596496854504
H         -2.419176945200         -1.669900059148          1.004436439419
H         -1.526304415742          0.239474424424          2.221387893542
H         -1.503902113702          0.960750701654         -1.170400229378
H         -0.410560181790          1.997532272974          0.666150752425
H          1.924402158665         -0.039925505513          1.230818645264
N         -1.700457396158          0.069239192159         -1.694919760674
O         -2.336854815213         -2.071648311690         -1.575178364018
H         -2.071900591240          2.128556542977          0.807834339232
H         -1.514408500508         -0.054510917210         -2.685235696363


